nrt/data/Nordic32/Nordic32.iidm
<?xml version="1.0" encoding="ISO-8859-1" standalone="no"?>
<!--
    Copyright (c) 2015-2019, RTE (http://www.rte-france.com)
    See AUTHORS.txt
    All rights reserved.
    This Source Code Form is subject to the terms of the Mozilla Public
    License, v. 2.0. If a copy of the MPL was not distributed with this
    file, you can obtain one at http://mozilla.org/MPL/2.0/.
    SPDX-License-Identifier: MPL-2.0

    This file is part of Dynawo, an hybrid C++/Modelica open source time domain
    simulation tool for power systems.
-->
<network xmlns="http://www.itesla_project.eu/schema/iidm/1_0" id="Nordic32_corrige" caseDate="2019-07-30T16:39:00.000+01:00" forecastDistance="0" sourceFormat="NF">
  <substation id="_19fe9db0-63e5-4f87-a503-0867c0a01369" country="FR" tso="RTE">
    <property name="paysCvg" value="AUTRE PAYS"/>
    <property name="regionCvg" value="AUTRE PAYS"/>
    <voltageLevel id="1011_130" nominalV="130" highVoltageLimit="136.5" topologyKind="BUS_BREAKER">
      <busBreakerTopology>
        <bus id="1011_131" v="138.03089904785156" angle="57.582394741223567"/>
      </busBreakerTopology>
    </voltageLevel>
    <voltageLevel id="4011_400" nominalV="400" highVoltageLimit="420" topologyKind="BUS_BREAKER">
      <busBreakerTopology>
        <bus id="4011_401" v="408.9791259765625" angle="56.683603318152421"/>
      </busBreakerTopology>
    </voltageLevel>
    <voltageLevel id="B11___20" nominalV="20" highVoltageLimit="21" topologyKind="BUS_BREAKER">
      <busBreakerTopology>
        <bus id="B11___21" v="20.051298141479492" angle="54.782508955138582"/>
      </busBreakerTopology>
      <load id="11_1" loadType="UNDEFINED" p0="199.99400329589844" q0="68.7958984375" bus="B11___21" connectableBus="B11___21" p="199.99400329589844" q="68.7958984375"/>
    </voltageLevel>
    <voltageLevel id="BG09__15" nominalV="15" highVoltageLimit="15.750001907348633" topologyKind="BUS_BREAKER">
      <busBreakerTopology>
        <bus id="BG09__11" v="14.981922149658203" angle="62.601395328267358"/>
      </busBreakerTopology>
      <generator id="g09" energySource="OTHER" minP="0" maxP="9999" voltageRegulatorOn="false" targetP="668.5" targetQ="201.25199890136719" targetV="14.981999397277832" bus="BG09__11" connectableBus="BG09__11" p="-668.5" q="-201.25199890136719">
        <property name="genreCvg" value="AUTRE"/>
        <reactiveCapabilityCurve>
          <point p="0" minQ="-1000" maxQ="1000"/>
          <point p="9999" minQ="-1000" maxQ="1000"/>
        </reactiveCapabilityCurve>
      </generator>
    </voltageLevel>
    <twoWindingsTransformer id="Tr1011-4011" r="0" x="1.3519998788833618" g="0" b="0" ratedU1="400" ratedU2="130" voltageLevelId1="4011_400" bus1="4011_401" connectableBus1="4011_401" voltageLevelId2="1011_130" bus2="1011_131" connectableBus2="1011_131" p1="-224.06806945800781" q1="196.62571716308594" p2="224.06806945800781" q2="-190.48808288574219">
      <ratioTapChanger lowTapPosition="0" tapPosition="0" loadTapChangingCapabilities="false" regulating="false">
        <step r="0" x="0" g="0" b="0" rho="1.0526316165924072"/>
        <step r="0" x="0" g="0" b="0" rho="1.0416667461395264"/>
        <step r="0" x="0" g="0" b="0" rho="1.0309277772903442"/>
        <step r="0" x="0" g="0" b="0" rho="1.0204081535339355"/>
        <step r="0" x="0" g="0" b="0" rho="1.0101009607315063"/>
        <step r="0" x="0" g="0" b="0" rho="1"/>
        <step r="0" x="0" g="0" b="0" rho="0.99009901285171509"/>
        <step r="0" x="0" g="0" b="0" rho="0.98039215803146362"/>
        <step r="0" x="0" g="0" b="0" rho="0.97087383270263672"/>
        <step r="0" x="0" g="0" b="0" rho="0.96153849363327026"/>
        <step r="0" x="0" g="0" b="0" rho="0.95238101482391357"/>
      </ratioTapChanger>
      <currentLimits1 permanentLimit="5551.43994140625"/>
      <currentLimits2 permanentLimit="5551.43994140625"/>
    </twoWindingsTransformer>
    <twoWindingsTransformer id="Tr11-1011" r="0" x="0.10000003129243851" g="0" b="0" ratedU1="130" ratedU2="20" voltageLevelId1="1011_130" bus1="1011_131" connectableBus1="1011_131" voltageLevelId2="B11___20" bus2="B11___21" connectableBus2="B11___21" p1="199.99400329589844" q1="79.921371459960938" p2="-199.99400329589844" q2="-68.7958984375">
      <ratioTapChanger lowTapPosition="0" tapPosition="24" loadTapChangingCapabilities="true" regulating="true"  targetV="20">
        <terminalRef id="B11___21" side="TWO"/>
        <step r="0" x="0" g="0" b="0" rho="1.25"/>
        <step r="0" x="0" g="0" b="0" rho="1.2345678806304932"/>
        <step r="0" x="0" g="0" b="0" rho="1.2195122241973877"/>
        <step r="0" x="0" g="0" b="0" rho="1.2048193216323853"/>
        <step r="0" x="0" g="0" b="0" rho="1.1904761791229248"/>
        <step r="0" x="0" g="0" b="0" rho="1.1764705181121826"/>
        <step r="0" x="0" g="0" b="0" rho="1.1627906560897827"/>
        <step r="0" x="0" g="0" b="0" rho="1.1494252681732178"/>
        <step r="0" x="0" g="0" b="0" rho="1.1363636255264282"/>
        <step r="0" x="0" g="0" b="0" rho="1.1235954761505127"/>
        <step r="0" x="0" g="0" b="0" rho="1.1111111640930176"/>
        <step r="0" x="0" g="0" b="0" rho="1.0989010334014893"/>
        <step r="0" x="0" g="0" b="0" rho="1.0869565010070801"/>
        <step r="0" x="0" g="0" b="0" rho="1.0752688646316528"/>
        <step r="0" x="0" g="0" b="0" rho="1.063829779624939"/>
        <step r="0" x="0" g="0" b="0" rho="1.0526316165924072"/>
        <step r="0" x="0" g="0" b="0" rho="1.0416667461395264"/>
        <step r="0" x="0" g="0" b="0" rho="1.0309277772903442"/>
        <step r="0" x="0" g="0" b="0" rho="1.0204081535339355"/>
        <step r="0" x="0" g="0" b="0" rho="1.0101009607315063"/>
        <step r="0" x="0" g="0" b="0" rho="1"/>
        <step r="0" x="0" g="0" b="0" rho="0.99009901285171509"/>
        <step r="0" x="0" g="0" b="0" rho="0.98039215803146362"/>
        <step r="0" x="0" g="0" b="0" rho="0.97087383270263672"/>
        <step r="0" x="0" g="0" b="0" rho="0.96153849363327026"/>
        <step r="0" x="0" g="0" b="0" rho="0.95238101482391357"/>
        <step r="0" x="0" g="0" b="0" rho="0.94339627027511597"/>
        <step r="0" x="0" g="0" b="0" rho="0.93457937240600586"/>
        <step r="0" x="0" g="0" b="0" rho="0.92592591047286987"/>
        <step r="0" x="0" g="0" b="0" rho="0.91743117570877075"/>
        <step r="0" x="0" g="0" b="0" rho="0.90909087657928467"/>
        <step r="0" x="0" g="0" b="0" rho="0.90090090036392212"/>
        <step r="0" x="0" g="0" b="0" rho="0.8928571343421936"/>
      </ratioTapChanger>
      <currentLimits1 permanentLimit="11547"/>
      <currentLimits2 permanentLimit="11547"/>
    </twoWindingsTransformer>
    <twoWindingsTransformer id="Tr4011-g9" r="0" x="0.033750001341104507" g="0" b="0" ratedU1="400" ratedU2="15" voltageLevelId1="4011_400" bus1="4011_401" connectableBus1="4011_401" voltageLevelId2="BG09__15" bus2="BG09__11" connectableBus2="BG09__11" p1="-668.5" q1="-127.96627807617188" p2="668.5" q2="201.25199890136719">
      <ratioTapChanger lowTapPosition="0" tapPosition="10" loadTapChangingCapabilities="false" regulating="false">
        <step r="0" x="0" g="0" b="0" rho="1.0526316165924072"/>
        <step r="0" x="0" g="0" b="0" rho="1.0416667461395264"/>
        <step r="0" x="0" g="0" b="0" rho="1.0309277772903442"/>
        <step r="0" x="0" g="0" b="0" rho="1.0204081535339355"/>
        <step r="0" x="0" g="0" b="0" rho="1.0101009607315063"/>
        <step r="0" x="0" g="0" b="0" rho="1"/>
        <step r="0" x="0" g="0" b="0" rho="0.99009901285171509"/>
        <step r="0" x="0" g="0" b="0" rho="0.98039215803146362"/>
        <step r="0" x="0" g="0" b="0" rho="0.97087383270263672"/>
        <step r="0" x="0" g="0" b="0" rho="0.96153849363327026"/>
        <step r="0" x="0" g="0" b="0" rho="0.95238101482391357"/>
      </ratioTapChanger>
      <currentLimits1 permanentLimit="38490"/>
      <currentLimits2 permanentLimit="38490"/>
    </twoWindingsTransformer>
  </substation>
  <substation id="_2733fb31-de68-473c-bbb7-234a34f4d82f" country="FR" tso="RTE">
    <property name="paysCvg" value="AUTRE PAYS"/>
    <property name="regionCvg" value="AUTRE PAYS"/>
    <voltageLevel id="1012_130" nominalV="130" highVoltageLimit="136.5" topologyKind="BUS_BREAKER">
      <busBreakerTopology>
        <bus id="1012_131" v="138.24008178710938" angle="61.132153335905912"/>
      </busBreakerTopology>
    </voltageLevel>
    <voltageLevel id="4012_400" nominalV="400" highVoltageLimit="420" topologyKind="BUS_BREAKER">
      <busBreakerTopology>
        <bus id="4012_401" v="409.41946411132812" angle="58.69330451915863"/>
      </busBreakerTopology>
      <shunt id="4012-Ind" bPerSection="-0.00062499998603016138" maximumSectionCount="1" currentSectionCount="1" bus="4012_401" connectableBus="4012_401" q="104.76519012451172">
        <property name="qMax" value="-100"/>
      </shunt>
    </voltageLevel>
    <voltageLevel id="B12___20" nominalV="20" highVoltageLimit="21" topologyKind="BUS_BREAKER">
      <busBreakerTopology>
        <bus id="B12___21" v="19.950098037719727" angle="58.29516596224942"/>
      </busBreakerTopology>
      <load id="12_1" loadType="UNDEFINED" p0="300.00201416015625" q0="83.801200866699219" bus="B12___21" connectableBus="B12___21" p="300.00201416015625" q="83.801200866699219"/>
    </voltageLevel>
    <voltageLevel id="BG01__15" nominalV="15" highVoltageLimit="15.750001907348633" topologyKind="BUS_BREAKER">
      <busBreakerTopology>
        <bus id="BG01__11" v="16.025962829589844" angle="66.81497317819408"/>
      </busBreakerTopology>
      <generator id="g01" energySource="OTHER" minP="0" maxP="9999" voltageRegulatorOn="false" targetP="600" targetQ="58.340000152587891" targetV="16.025999069213867" bus="BG01__11" connectableBus="BG01__11" p="-600" q="-58.340000152587891">
        <property name="genreCvg" value="AUTRE"/>
        <reactiveCapabilityCurve>
          <point p="0" minQ="-800" maxQ="800"/>
          <point p="9999" minQ="-800" maxQ="800"/>
        </reactiveCapabilityCurve>
      </generator>
    </voltageLevel>
    <voltageLevel id="BG10__15" nominalV="15" highVoltageLimit="15.750001907348633" topologyKind="BUS_BREAKER">
      <busBreakerTopology>
        <bus id="BG10__11" v="15.235474586486816" angle="65.217549025679006"/>
      </busBreakerTopology>
      <generator id="g10" energySource="OTHER" minP="0" maxP="9999" voltageRegulatorOn="false" targetP="600" targetQ="255.70100402832031" targetV="15.235500335693359" bus="BG10__11" connectableBus="BG10__11" p="-600" q="-255.70100402832031">
        <property name="genreCvg" value="AUTRE"/>
        <reactiveCapabilityCurve>
          <point p="0" minQ="-800" maxQ="800"/>
          <point p="9999" minQ="-800" maxQ="800"/>
        </reactiveCapabilityCurve>
      </generator>
    </voltageLevel>
    <twoWindingsTransformer id="Tr1012-4012" r="0" x="1.3519998788833618" g="0" b="0" ratedU1="400" ratedU2="130" voltageLevelId1="4012_400" bus1="4012_401" connectableBus1="4012_401" voltageLevelId2="1012_130" bus2="1012_131" connectableBus2="1012_131" p1="-609.41937255859375" q1="201.98403930664062" p2="609.41937255859375" q2="-173.57759094238281">
      <ratioTapChanger lowTapPosition="0" tapPosition="0" loadTapChangingCapabilities="false" regulating="false">
        <step r="0" x="0" g="0" b="0" rho="1.0526316165924072"/>
        <step r="0" x="0" g="0" b="0" rho="1.0416667461395264"/>
        <step r="0" x="0" g="0" b="0" rho="1.0309277772903442"/>
        <step r="0" x="0" g="0" b="0" rho="1.0204081535339355"/>
        <step r="0" x="0" g="0" b="0" rho="1.0101009607315063"/>
        <step r="0" x="0" g="0" b="0" rho="1"/>
        <step r="0" x="0" g="0" b="0" rho="0.99009901285171509"/>
        <step r="0" x="0" g="0" b="0" rho="0.98039215803146362"/>
        <step r="0" x="0" g="0" b="0" rho="0.97087383270263672"/>
        <step r="0" x="0" g="0" b="0" rho="0.96153849363327026"/>
        <step r="0" x="0" g="0" b="0" rho="0.95238101482391357"/>
      </ratioTapChanger>
      <currentLimits1 permanentLimit="5551.43994140625"/>
      <currentLimits2 permanentLimit="5551.43994140625"/>
    </twoWindingsTransformer>
    <twoWindingsTransformer id="Tr1012-g1" r="0" x="0.042187508195638657" g="0" b="0" ratedU1="130" ratedU2="15" voltageLevelId1="1012_130" bus1="1012_131" connectableBus1="1012_131" voltageLevelId2="BG01__15" bus2="BG01__11" connectableBus2="BG01__11" p1="-600" q1="1.3531774282455444" p2="600" q2="58.340000152587891">
      <ratioTapChanger lowTapPosition="0" tapPosition="5" loadTapChangingCapabilities="false" regulating="false">
        <step r="0" x="0" g="0" b="0" rho="1.0526316165924072"/>
        <step r="0" x="0" g="0" b="0" rho="1.0416667461395264"/>
        <step r="0" x="0" g="0" b="0" rho="1.0309277772903442"/>
        <step r="0" x="0" g="0" b="0" rho="1.0204081535339355"/>
        <step r="0" x="0" g="0" b="0" rho="1.0101009607315063"/>
        <step r="0" x="0" g="0" b="0" rho="1"/>
        <step r="0" x="0" g="0" b="0" rho="0.99009901285171509"/>
        <step r="0" x="0" g="0" b="0" rho="0.98039215803146362"/>
        <step r="0" x="0" g="0" b="0" rho="0.97087383270263672"/>
        <step r="0" x="0" g="0" b="0" rho="0.96153849363327026"/>
        <step r="0" x="0" g="0" b="0" rho="0.95238101482391357"/>
      </ratioTapChanger>
      <currentLimits1 permanentLimit="30791.998046875"/>
      <currentLimits2 permanentLimit="30791.998046875"/>
    </twoWindingsTransformer>
    <twoWindingsTransformer id="Tr12-1012" r="0" x="0.066666767001152039" g="0" b="0" ratedU1="130" ratedU2="20" voltageLevelId1="1012_130" bus1="1012_131" connectableBus1="1012_131" voltageLevelId2="B12___20" bus2="B12___21" connectableBus2="B12___21" p1="300.00201416015625" q1="100.0528564453125" p2="-300.00201416015625" q2="-83.801200866699219">
      <ratioTapChanger lowTapPosition="0" tapPosition="25" loadTapChangingCapabilities="true" regulating="true"  targetV="20">
        <terminalRef id="B12___21" side="TWO"/>
        <step r="0" x="0" g="0" b="0" rho="1.25"/>
        <step r="0" x="0" g="0" b="0" rho="1.2345678806304932"/>
        <step r="0" x="0" g="0" b="0" rho="1.2195122241973877"/>
        <step r="0" x="0" g="0" b="0" rho="1.2048193216323853"/>
        <step r="0" x="0" g="0" b="0" rho="1.1904761791229248"/>
        <step r="0" x="0" g="0" b="0" rho="1.1764705181121826"/>
        <step r="0" x="0" g="0" b="0" rho="1.1627906560897827"/>
        <step r="0" x="0" g="0" b="0" rho="1.1494252681732178"/>
        <step r="0" x="0" g="0" b="0" rho="1.1363636255264282"/>
        <step r="0" x="0" g="0" b="0" rho="1.1235954761505127"/>
        <step r="0" x="0" g="0" b="0" rho="1.1111111640930176"/>
        <step r="0" x="0" g="0" b="0" rho="1.0989010334014893"/>
        <step r="0" x="0" g="0" b="0" rho="1.0869565010070801"/>
        <step r="0" x="0" g="0" b="0" rho="1.0752688646316528"/>
        <step r="0" x="0" g="0" b="0" rho="1.063829779624939"/>
        <step r="0" x="0" g="0" b="0" rho="1.0526316165924072"/>
        <step r="0" x="0" g="0" b="0" rho="1.0416667461395264"/>
        <step r="0" x="0" g="0" b="0" rho="1.0309277772903442"/>
        <step r="0" x="0" g="0" b="0" rho="1.0204081535339355"/>
        <step r="0" x="0" g="0" b="0" rho="1.0101009607315063"/>
        <step r="0" x="0" g="0" b="0" rho="1"/>
        <step r="0" x="0" g="0" b="0" rho="0.99009901285171509"/>
        <step r="0" x="0" g="0" b="0" rho="0.98039215803146362"/>
        <step r="0" x="0" g="0" b="0" rho="0.97087383270263672"/>
        <step r="0" x="0" g="0" b="0" rho="0.96153849363327026"/>
        <step r="0" x="0" g="0" b="0" rho="0.95238101482391357"/>
        <step r="0" x="0" g="0" b="0" rho="0.94339627027511597"/>
        <step r="0" x="0" g="0" b="0" rho="0.93457937240600586"/>
        <step r="0" x="0" g="0" b="0" rho="0.92592591047286987"/>
        <step r="0" x="0" g="0" b="0" rho="0.91743117570877075"/>
        <step r="0" x="0" g="0" b="0" rho="0.90909087657928467"/>
        <step r="0" x="0" g="0" b="0" rho="0.90090090036392212"/>
        <step r="0" x="0" g="0" b="0" rho="0.8928571343421936"/>
      </ratioTapChanger>
      <currentLimits1 permanentLimit="17320.5"/>
      <currentLimits2 permanentLimit="17320.5"/>
    </twoWindingsTransformer>
    <twoWindingsTransformer id="Tr4012-g10" r="0" x="0.04218750074505806" g="0" b="0" ratedU1="400" ratedU2="15" voltageLevelId1="4012_400" bus1="4012_401" connectableBus1="4012_401" voltageLevelId2="BG10__15" bus2="BG10__11" connectableBus2="BG10__11" p1="-600" q1="-178.38810729980469" p2="600" q2="255.70100402832031">
      <ratioTapChanger lowTapPosition="0" tapPosition="10" loadTapChangingCapabilities="false" regulating="false">
        <step r="0" x="0" g="0" b="0" rho="1.0526316165924072"/>
        <step r="0" x="0" g="0" b="0" rho="1.0416667461395264"/>
        <step r="0" x="0" g="0" b="0" rho="1.0309277772903442"/>
        <step r="0" x="0" g="0" b="0" rho="1.0204081535339355"/>
        <step r="0" x="0" g="0" b="0" rho="1.0101009607315063"/>
        <step r="0" x="0" g="0" b="0" rho="1"/>
        <step r="0" x="0" g="0" b="0" rho="0.99009901285171509"/>
        <step r="0" x="0" g="0" b="0" rho="0.98039215803146362"/>
        <step r="0" x="0" g="0" b="0" rho="0.97087383270263672"/>
        <step r="0" x="0" g="0" b="0" rho="0.96153849363327026"/>
        <step r="0" x="0" g="0" b="0" rho="0.95238101482391357"/>
      </ratioTapChanger>
      <currentLimits1 permanentLimit="30792"/>
      <currentLimits2 permanentLimit="30792"/>
    </twoWindingsTransformer>
  </substation>
  <substation id="_3dd84004-1feb-4d62-bf15-4ae3dcc30bc4" country="FR" tso="RTE">
    <property name="paysCvg" value="AUTRE PAYS"/>
    <property name="regionCvg" value="AUTRE PAYS"/>
    <voltageLevel id="1013_130" nominalV="130" highVoltageLimit="136.5" topologyKind="BUS_BREAKER">
      <busBreakerTopology>
        <bus id="1013_131" v="137.12515258789062" angle="65.487252705435296"/>
      </busBreakerTopology>
    </voltageLevel>
    <voltageLevel id="B13___20" nominalV="20" highVoltageLimit="21" topologyKind="BUS_BREAKER">
      <busBreakerTopology>
        <bus id="B13___21" v="19.914411544799805" angle="62.64929544491666"/>
      </busBreakerTopology>
      <load id="13_1" loadType="UNDEFINED" p0="100.00299835205078" q0="34.401699066162109" bus="B13___21" connectableBus="B13___21" p="100.00299835205078" q="34.401699066162109"/>
    </voltageLevel>
    <voltageLevel id="BG02__15" nominalV="15" highVoltageLimit="15.750001907348633" topologyKind="BUS_BREAKER">
      <busBreakerTopology>
        <bus id="BG02__11" v="15.847428321838379" angle="69.346220794033286"/>
      </busBreakerTopology>
      <generator id="g02" energySource="OTHER" minP="0" maxP="9999" voltageRegulatorOn="false" targetP="300" targetQ="17.233400344848633" targetV="15.847498893737793" bus="BG02__11" connectableBus="BG02__11" p="-300" q="-17.233400344848633">
        <property name="genreCvg" value="AUTRE"/>
        <reactiveCapabilityCurve>
          <point p="0" minQ="-600" maxQ="600"/>
          <point p="9999" minQ="-600" maxQ="600"/>
        </reactiveCapabilityCurve>
      </generator>
    </voltageLevel>
    <twoWindingsTransformer id="Tr1013-g2" r="0" x="0.056250009685754776" g="0" b="0" ratedU1="130" ratedU2="15" voltageLevelId1="1013_130" bus1="1013_131" connectableBus1="1013_131" voltageLevelId2="BG02__15" bus2="BG02__11" connectableBus2="BG02__11" p1="-300" q1="2.9911203384399414" p2="300" q2="17.233400344848633">
      <ratioTapChanger lowTapPosition="0" tapPosition="5" loadTapChangingCapabilities="false" regulating="false">
        <step r="0" x="0" g="0" b="0" rho="1.0526316165924072"/>
        <step r="0" x="0" g="0" b="0" rho="1.0416667461395264"/>
        <step r="0" x="0" g="0" b="0" rho="1.0309277772903442"/>
        <step r="0" x="0" g="0" b="0" rho="1.0204081535339355"/>
        <step r="0" x="0" g="0" b="0" rho="1.0101009607315063"/>
        <step r="0" x="0" g="0" b="0" rho="1"/>
        <step r="0" x="0" g="0" b="0" rho="0.99009901285171509"/>
        <step r="0" x="0" g="0" b="0" rho="0.98039215803146362"/>
        <step r="0" x="0" g="0" b="0" rho="0.97087383270263672"/>
        <step r="0" x="0" g="0" b="0" rho="0.96153849363327026"/>
        <step r="0" x="0" g="0" b="0" rho="0.95238101482391357"/>
      </ratioTapChanger>
      <currentLimits1 permanentLimit="23094"/>
      <currentLimits2 permanentLimit="23094"/>
    </twoWindingsTransformer>
    <twoWindingsTransformer id="Tr13-1013" r="0" x="0.20000006258487701" g="0" b="0" ratedU1="130" ratedU2="20" voltageLevelId1="1013_130" bus1="1013_131" connectableBus1="1013_131" voltageLevelId2="B13___20" bus2="B13___21" connectableBus2="B13___21" p1="100.00299835205078" q1="40.041908264160156" p2="-100.00299835205078" q2="-34.401699066162109">
      <ratioTapChanger lowTapPosition="0" tapPosition="24" loadTapChangingCapabilities="true" regulating="true"  targetV="20">
        <terminalRef id="B13___21" side="TWO"/>
        <step r="0" x="0" g="0" b="0" rho="1.25"/>
        <step r="0" x="0" g="0" b="0" rho="1.2345678806304932"/>
        <step r="0" x="0" g="0" b="0" rho="1.2195122241973877"/>
        <step r="0" x="0" g="0" b="0" rho="1.2048193216323853"/>
        <step r="0" x="0" g="0" b="0" rho="1.1904761791229248"/>
        <step r="0" x="0" g="0" b="0" rho="1.1764705181121826"/>
        <step r="0" x="0" g="0" b="0" rho="1.1627906560897827"/>
        <step r="0" x="0" g="0" b="0" rho="1.1494252681732178"/>
        <step r="0" x="0" g="0" b="0" rho="1.1363636255264282"/>
        <step r="0" x="0" g="0" b="0" rho="1.1235954761505127"/>
        <step r="0" x="0" g="0" b="0" rho="1.1111111640930176"/>
        <step r="0" x="0" g="0" b="0" rho="1.0989010334014893"/>
        <step r="0" x="0" g="0" b="0" rho="1.0869565010070801"/>
        <step r="0" x="0" g="0" b="0" rho="1.0752688646316528"/>
        <step r="0" x="0" g="0" b="0" rho="1.063829779624939"/>
        <step r="0" x="0" g="0" b="0" rho="1.0526316165924072"/>
        <step r="0" x="0" g="0" b="0" rho="1.0416667461395264"/>
        <step r="0" x="0" g="0" b="0" rho="1.0309277772903442"/>
        <step r="0" x="0" g="0" b="0" rho="1.0204081535339355"/>
        <step r="0" x="0" g="0" b="0" rho="1.0101009607315063"/>
        <step r="0" x="0" g="0" b="0" rho="1"/>
        <step r="0" x="0" g="0" b="0" rho="0.99009901285171509"/>
        <step r="0" x="0" g="0" b="0" rho="0.98039215803146362"/>
        <step r="0" x="0" g="0" b="0" rho="0.97087383270263672"/>
        <step r="0" x="0" g="0" b="0" rho="0.96153849363327026"/>
        <step r="0" x="0" g="0" b="0" rho="0.95238101482391357"/>
        <step r="0" x="0" g="0" b="0" rho="0.94339627027511597"/>
        <step r="0" x="0" g="0" b="0" rho="0.93457937240600586"/>
        <step r="0" x="0" g="0" b="0" rho="0.92592591047286987"/>
        <step r="0" x="0" g="0" b="0" rho="0.91743117570877075"/>
        <step r="0" x="0" g="0" b="0" rho="0.90909087657928467"/>
        <step r="0" x="0" g="0" b="0" rho="0.90090090036392212"/>
        <step r="0" x="0" g="0" b="0" rho="0.8928571343421936"/>
      </ratioTapChanger>
      <currentLimits1 permanentLimit="5773.5"/>
      <currentLimits2 permanentLimit="5773.5"/>
    </twoWindingsTransformer>
  </substation>
  <substation id="_6b684b57-105e-4777-b95c-3f07617803dd" country="FR" tso="RTE">
    <property name="paysCvg" value="AUTRE PAYS"/>
    <property name="regionCvg" value="AUTRE PAYS"/>
    <voltageLevel id="1014_130" nominalV="130" highVoltageLimit="136.5" topologyKind="BUS_BREAKER">
      <busBreakerTopology>
        <bus id="1014_131" v="137.94468688964844" angle="68.486784920959749"/>
      </busBreakerTopology>
    </voltageLevel>
    <voltageLevel id="BG03__15" nominalV="15" highVoltageLimit="15.750001907348633" topologyKind="BUS_BREAKER">
      <busBreakerTopology>
        <bus id="BG03__11" v="15.892438888549805" angle="74.504290862767704"/>
      </busBreakerTopology>
      <generator id="g03" energySource="OTHER" minP="0" maxP="9999" voltageRegulatorOn="false" targetP="550" targetQ="20.913200378417969" targetV="15.892499923706055" bus="BG03__11" connectableBus="BG03__11" p="-550" q="-20.913200378417969">
        <property name="genreCvg" value="AUTRE"/>
        <reactiveCapabilityCurve>
          <point p="0" minQ="-700" maxQ="700"/>
          <point p="9999" minQ="-700" maxQ="700"/>
        </reactiveCapabilityCurve>
      </generator>
    </voltageLevel>
    <twoWindingsTransformer id="Tr1014-g3" r="0" x="0.048214320093393326" g="0" b="0" ratedU1="130" ratedU2="15" voltageLevelId1="1014_130" bus1="1014_131" connectableBus1="1014_131" voltageLevelId2="BG03__15" bus2="BG03__11" connectableBus2="BG03__11" p1="-550" q1="36.916069030761719" p2="550" q2="20.913200378417969">
      <ratioTapChanger lowTapPosition="0" tapPosition="5" loadTapChangingCapabilities="false" regulating="false">
        <step r="0" x="0" g="0" b="0" rho="1.0526316165924072"/>
        <step r="0" x="0" g="0" b="0" rho="1.0416667461395264"/>
        <step r="0" x="0" g="0" b="0" rho="1.0309277772903442"/>
        <step r="0" x="0" g="0" b="0" rho="1.0204081535339355"/>
        <step r="0" x="0" g="0" b="0" rho="1.0101009607315063"/>
        <step r="0" x="0" g="0" b="0" rho="1"/>
        <step r="0" x="0" g="0" b="0" rho="0.99009901285171509"/>
        <step r="0" x="0" g="0" b="0" rho="0.98039215803146362"/>
        <step r="0" x="0" g="0" b="0" rho="0.97087383270263672"/>
        <step r="0" x="0" g="0" b="0" rho="0.96153849363327026"/>
        <step r="0" x="0" g="0" b="0" rho="0.95238101482391357"/>
      </ratioTapChanger>
      <currentLimits1 permanentLimit="26943"/>
      <currentLimits2 permanentLimit="26943"/>
    </twoWindingsTransformer>
  </substation>
  <substation id="_aa90c941-14e3-4c16-8ed4-513a0206d631" country="FR" tso="RTE">
    <property name="paysCvg" value="AUTRE PAYS"/>
    <property name="regionCvg" value="AUTRE PAYS"/>
    <voltageLevel id="1021_130" nominalV="130" highVoltageLimit="136.5" topologyKind="BUS_BREAKER">
      <busBreakerTopology>
        <bus id="1021_131" v="134.0380859375" angle="66.87475782399919"/>
      </busBreakerTopology>
    </voltageLevel>
    <voltageLevel id="BG04__15" nominalV="15" highVoltageLimit="15.750001907348633" topologyKind="BUS_BREAKER">
      <busBreakerTopology>
        <bus id="BG04__11" v="15.507905006408691" angle="72.257636739075409"/>
      </busBreakerTopology>
      <generator id="g04" energySource="OTHER" minP="0" maxP="9999" voltageRegulatorOn="false" targetP="400" targetQ="30.375099182128906" targetV="15.508500099182129" bus="BG04__11" connectableBus="BG04__11" p="-400" q="-30.375099182128906">
        <property name="genreCvg" value="AUTRE"/>
        <reactiveCapabilityCurve>
          <point p="0" minQ="-600" maxQ="600"/>
          <point p="9999" minQ="-600" maxQ="600"/>
        </reactiveCapabilityCurve>
      </generator>
    </voltageLevel>
    <twoWindingsTransformer id="Tr1021-g4" r="0" x="0.056250009685754776" g="0" b="0" ratedU1="130" ratedU2="15" voltageLevelId1="1021_130" bus1="1021_131" connectableBus1="1021_131" voltageLevelId2="BG04__15" bus2="BG04__11" connectableBus2="BG04__11" p1="-400" q1="7.2635049819946289" p2="400" q2="30.375099182128906">
      <ratioTapChanger lowTapPosition="0" tapPosition="5" loadTapChangingCapabilities="false" regulating="false">
        <step r="0" x="0" g="0" b="0" rho="1.0526316165924072"/>
        <step r="0" x="0" g="0" b="0" rho="1.0416667461395264"/>
        <step r="0" x="0" g="0" b="0" rho="1.0309277772903442"/>
        <step r="0" x="0" g="0" b="0" rho="1.0204081535339355"/>
        <step r="0" x="0" g="0" b="0" rho="1.0101009607315063"/>
        <step r="0" x="0" g="0" b="0" rho="1"/>
        <step r="0" x="0" g="0" b="0" rho="0.99009901285171509"/>
        <step r="0" x="0" g="0" b="0" rho="0.98039215803146362"/>
        <step r="0" x="0" g="0" b="0" rho="0.97087383270263672"/>
        <step r="0" x="0" g="0" b="0" rho="0.96153849363327026"/>
        <step r="0" x="0" g="0" b="0" rho="0.95238101482391357"/>
      </ratioTapChanger>
      <currentLimits1 permanentLimit="23094"/>
      <currentLimits2 permanentLimit="23094"/>
    </twoWindingsTransformer>
  </substation>
  <substation id="_324bf35a-84bb-4d14-b005-bbaaef147928" country="FR" tso="RTE">
    <property name="paysCvg" value="AUTRE PAYS"/>
    <property name="regionCvg" value="AUTRE PAYS"/>
    <voltageLevel id="1022_130" nominalV="130" highVoltageLimit="136.5" topologyKind="BUS_BREAKER">
      <busBreakerTopology>
        <bus id="1022_131" v="136.66015625" angle="45.183637718264045"/>
      </busBreakerTopology>
      <shunt id="1022-Cap" bPerSection="0.002958579920232296" maximumSectionCount="1" currentSectionCount="1" bus="1022_131" connectableBus="1022_131" q="-55.254432678222656">
        <property name="qMax" value="50"/>
      </shunt>
    </voltageLevel>
    <voltageLevel id="4022_400" nominalV="400" highVoltageLimit="420" topologyKind="BUS_BREAKER">
      <busBreakerTopology>
        <bus id="4022_401" v="397.874755859375" angle="43.364573927182057"/>
      </busBreakerTopology>
    </voltageLevel>
    <voltageLevel id="B22___20" nominalV="20" highVoltageLimit="21" topologyKind="BUS_BREAKER">
      <busBreakerTopology>
        <bus id="B22___21" v="19.904258728027344" angle="42.334526758830776"/>
      </busBreakerTopology>
      <load id="22_1" loadType="UNDEFINED" p0="280.01199340820312" q0="79.90679931640625" bus="B22___21" connectableBus="B22___21" p="280.01199340820312" q="79.90679931640625"/>
    </voltageLevel>
    <voltageLevel id="BG05__15" nominalV="15" highVoltageLimit="15.750001907348633" topologyKind="BUS_BREAKER">
      <busBreakerTopology>
        <bus id="BG05__11" v="15.440577507019043" angle="51.870290462868979"/>
      </busBreakerTopology>
      <generator id="g05" energySource="OTHER" minP="0" maxP="9999" voltageRegulatorOn="false" targetP="200" targetQ="60.0614013671875" targetV="15.440999984741211" bus="BG05__11" connectableBus="BG05__11" p="-200" q="-60.0614013671875">
        <property name="genreCvg" value="AUTRE"/>
        <reactiveCapabilityCurve>
          <point p="0" minQ="-250" maxQ="250"/>
          <point p="9999" minQ="-250" maxQ="250"/>
        </reactiveCapabilityCurve>
      </generator>
    </voltageLevel>
    <twoWindingsTransformer id="Tr1022-4022" r="0" x="2.0280842781066895" g="0" b="0" ratedU1="400" ratedU2="130" voltageLevelId1="4022_400" bus1="4022_401" connectableBus1="4022_401" voltageLevelId2="1022_130" bus2="1022_131" connectableBus2="1022_131" p1="-297.40997314453125" q1="168.03424072265625" p2="297.40997314453125" q2="-155.79316711425781">
      <ratioTapChanger lowTapPosition="0" tapPosition="3" loadTapChangingCapabilities="false" regulating="false">
        <step r="0" x="0" g="0" b="0" rho="1.1111111640930176"/>
        <step r="0" x="0" g="0" b="0" rho="1.0989010334014893"/>
        <step r="0" x="0" g="0" b="0" rho="1.0869565010070801"/>
        <step r="0" x="0" g="0" b="0" rho="1.0752688646316528"/>
        <step r="0" x="0" g="0" b="0" rho="1.063829779624939"/>
        <step r="0" x="0" g="0" b="0" rho="1.0526316165924072"/>
        <step r="0" x="0" g="0" b="0" rho="1.0416667461395264"/>
        <step r="0" x="0" g="0" b="0" rho="1.0309277772903442"/>
        <step r="0" x="0" g="0" b="0" rho="1.0204081535339355"/>
        <step r="0" x="0" g="0" b="0" rho="1.0101009607315063"/>
        <step r="0" x="0" g="0" b="0" rho="1"/>
        <step r="0" x="0" g="0" b="0" rho="0.99009901285171509"/>
        <step r="0" x="0" g="0" b="0" rho="0.98039215803146362"/>
        <step r="0" x="0" g="0" b="0" rho="0.97087383270263672"/>
        <step r="0" x="0" g="0" b="0" rho="0.96153849363327026"/>
        <step r="0" x="0" g="0" b="0" rho="0.95238101482391357"/>
        <step r="0" x="0" g="0" b="0" rho="0.94339627027511597"/>
        <step r="0" x="0" g="0" b="0" rho="0.93457937240600586"/>
        <step r="0" x="0" g="0" b="0" rho="0.92592591047286987"/>
        <step r="0" x="0" g="0" b="0" rho="0.91743117570877075"/>
        <step r="0" x="0" g="0" b="0" rho="0.90909087657928467"/>
      </ratioTapChanger>
      <currentLimits1 permanentLimit="3700.820068359375"/>
      <currentLimits2 permanentLimit="3700.820068359375"/>
    </twoWindingsTransformer>
    <twoWindingsTransformer id="Tr1022-g5" r="0" x="0.13500003516674042" g="0" b="0" ratedU1="130" ratedU2="15" voltageLevelId1="1022_130" bus1="1022_131" connectableBus1="1022_131" voltageLevelId2="BG05__15" bus2="BG05__11" connectableBus2="BG05__11" p1="-200" q1="-35.368808746337891" p2="200" q2="60.0614013671875">
      <ratioTapChanger lowTapPosition="0" tapPosition="10" loadTapChangingCapabilities="false" regulating="false">
        <step r="0" x="0" g="0" b="0" rho="1.0526316165924072"/>
        <step r="0" x="0" g="0" b="0" rho="1.0416667461395264"/>
        <step r="0" x="0" g="0" b="0" rho="1.0309277772903442"/>
        <step r="0" x="0" g="0" b="0" rho="1.0204081535339355"/>
        <step r="0" x="0" g="0" b="0" rho="1.0101009607315063"/>
        <step r="0" x="0" g="0" b="0" rho="1"/>
        <step r="0" x="0" g="0" b="0" rho="0.99009901285171509"/>
        <step r="0" x="0" g="0" b="0" rho="0.98039215803146362"/>
        <step r="0" x="0" g="0" b="0" rho="0.97087383270263672"/>
        <step r="0" x="0" g="0" b="0" rho="0.96153849363327026"/>
        <step r="0" x="0" g="0" b="0" rho="0.95238101482391357"/>
      </ratioTapChanger>
      <currentLimits1 permanentLimit="9622.5"/>
      <currentLimits2 permanentLimit="9622.5"/>
    </twoWindingsTransformer>
    <twoWindingsTransformer id="Tr22-1022" r="0" x="0.071428664028644562" g="0" b="0" ratedU1="130" ratedU2="20" voltageLevelId1="1022_130" bus1="1022_131" connectableBus1="1022_131" voltageLevelId2="B22___20" bus2="B22___21" connectableBus2="B22___21" p1="280.01199340820312" q1="95.194229125976562" p2="-280.01199340820312" q2="-79.90679931640625">
      <ratioTapChanger lowTapPosition="0" tapPosition="24" loadTapChangingCapabilities="true" regulating="true"  targetV="20">
        <terminalRef id="B22___21" side="TWO"/>
        <step r="0" x="0" g="0" b="0" rho="1.25"/>
        <step r="0" x="0" g="0" b="0" rho="1.2345678806304932"/>
        <step r="0" x="0" g="0" b="0" rho="1.2195122241973877"/>
        <step r="0" x="0" g="0" b="0" rho="1.2048193216323853"/>
        <step r="0" x="0" g="0" b="0" rho="1.1904761791229248"/>
        <step r="0" x="0" g="0" b="0" rho="1.1764705181121826"/>
        <step r="0" x="0" g="0" b="0" rho="1.1627906560897827"/>
        <step r="0" x="0" g="0" b="0" rho="1.1494252681732178"/>
        <step r="0" x="0" g="0" b="0" rho="1.1363636255264282"/>
        <step r="0" x="0" g="0" b="0" rho="1.1235954761505127"/>
        <step r="0" x="0" g="0" b="0" rho="1.1111111640930176"/>
        <step r="0" x="0" g="0" b="0" rho="1.0989010334014893"/>
        <step r="0" x="0" g="0" b="0" rho="1.0869565010070801"/>
        <step r="0" x="0" g="0" b="0" rho="1.0752688646316528"/>
        <step r="0" x="0" g="0" b="0" rho="1.063829779624939"/>
        <step r="0" x="0" g="0" b="0" rho="1.0526316165924072"/>
        <step r="0" x="0" g="0" b="0" rho="1.0416667461395264"/>
        <step r="0" x="0" g="0" b="0" rho="1.0309277772903442"/>
        <step r="0" x="0" g="0" b="0" rho="1.0204081535339355"/>
        <step r="0" x="0" g="0" b="0" rho="1.0101009607315063"/>
        <step r="0" x="0" g="0" b="0" rho="1"/>
        <step r="0" x="0" g="0" b="0" rho="0.99009901285171509"/>
        <step r="0" x="0" g="0" b="0" rho="0.98039215803146362"/>
        <step r="0" x="0" g="0" b="0" rho="0.97087383270263672"/>
        <step r="0" x="0" g="0" b="0" rho="0.96153849363327026"/>
        <step r="0" x="0" g="0" b="0" rho="0.95238101482391357"/>
        <step r="0" x="0" g="0" b="0" rho="0.94339627027511597"/>
        <step r="0" x="0" g="0" b="0" rho="0.93457937240600586"/>
        <step r="0" x="0" g="0" b="0" rho="0.92592591047286987"/>
        <step r="0" x="0" g="0" b="0" rho="0.91743117570877075"/>
        <step r="0" x="0" g="0" b="0" rho="0.90909087657928467"/>
        <step r="0" x="0" g="0" b="0" rho="0.90090090036392212"/>
        <step r="0" x="0" g="0" b="0" rho="0.8928571343421936"/>
      </ratioTapChanger>
      <currentLimits1 permanentLimit="16165.7998046875"/>
      <currentLimits2 permanentLimit="16165.7998046875"/>
    </twoWindingsTransformer>
  </substation>
  <substation id="_22d093c3-f6da-43b4-9b8d-c13a0e2906eb" country="FR" tso="RTE">
    <property name="paysCvg" value="AUTRE PAYS"/>
    <property name="regionCvg" value="AUTRE PAYS"/>
    <voltageLevel id="1041_130" nominalV="130" highVoltageLimit="136.5" topologyKind="BUS_BREAKER">
      <busBreakerTopology>
        <bus id="1041_131" v="131.61917114257812" angle="-17.641791229874315"/>
      </busBreakerTopology>
      <shunt id="1041-Cap" bPerSection="0.014792900532484055" maximumSectionCount="1" currentSectionCount="1" bus="1041_131" connectableBus="1041_131" q="-256.266357421875">
        <property name="qMax" value="250"/>
      </shunt>
    </voltageLevel>
    <voltageLevel id="B01___20" nominalV="20" highVoltageLimit="21" topologyKind="BUS_BREAKER">
      <busBreakerTopology>
        <bus id="B01___21" v="19.977056503295898" angle="-20.475737461802861"/>
      </busBreakerTopology>
      <load id="01_1" loadType="UNDEFINED" p0="600" q0="148.19999694824219" bus="B01___21" connectableBus="B01___21" p="600" q="148.19999694824219"/>
    </voltageLevel>
    <twoWindingsTransformer id="Tr1-1041" r="0" x="0.03333326056599617" g="0" b="0" ratedU1="130" ratedU2="20" voltageLevelId1="1041_130" bus1="1041_131" connectableBus1="1041_131" voltageLevelId2="B01___20" bus2="B01___21" connectableBus2="B01___21" p1="600" q1="180.10334777832031" p2="-600" q2="-148.19999694824219">
      <ratioTapChanger lowTapPosition="0" tapPosition="20" loadTapChangingCapabilities="true" regulating="true"  targetV="20">
        <terminalRef id="B01___21" side="TWO"/>
        <step r="0" x="0" g="0" b="0" rho="1.25"/>
        <step r="0" x="0" g="0" b="0" rho="1.2345678806304932"/>
        <step r="0" x="0" g="0" b="0" rho="1.2195122241973877"/>
        <step r="0" x="0" g="0" b="0" rho="1.2048193216323853"/>
        <step r="0" x="0" g="0" b="0" rho="1.1904761791229248"/>
        <step r="0" x="0" g="0" b="0" rho="1.1764705181121826"/>
        <step r="0" x="0" g="0" b="0" rho="1.1627906560897827"/>
        <step r="0" x="0" g="0" b="0" rho="1.1494252681732178"/>
        <step r="0" x="0" g="0" b="0" rho="1.1363636255264282"/>
        <step r="0" x="0" g="0" b="0" rho="1.1235954761505127"/>
        <step r="0" x="0" g="0" b="0" rho="1.1111111640930176"/>
        <step r="0" x="0" g="0" b="0" rho="1.0989010334014893"/>
        <step r="0" x="0" g="0" b="0" rho="1.0869565010070801"/>
        <step r="0" x="0" g="0" b="0" rho="1.0752688646316528"/>
        <step r="0" x="0" g="0" b="0" rho="1.063829779624939"/>
        <step r="0" x="0" g="0" b="0" rho="1.0526316165924072"/>
        <step r="0" x="0" g="0" b="0" rho="1.0416667461395264"/>
        <step r="0" x="0" g="0" b="0" rho="1.0309277772903442"/>
        <step r="0" x="0" g="0" b="0" rho="1.0204081535339355"/>
        <step r="0" x="0" g="0" b="0" rho="1.0101009607315063"/>
        <step r="0" x="0" g="0" b="0" rho="1"/>
        <step r="0" x="0" g="0" b="0" rho="0.99009901285171509"/>
        <step r="0" x="0" g="0" b="0" rho="0.98039215803146362"/>
        <step r="0" x="0" g="0" b="0" rho="0.97087383270263672"/>
        <step r="0" x="0" g="0" b="0" rho="0.96153849363327026"/>
        <step r="0" x="0" g="0" b="0" rho="0.95238101482391357"/>
        <step r="0" x="0" g="0" b="0" rho="0.94339627027511597"/>
        <step r="0" x="0" g="0" b="0" rho="0.93457937240600586"/>
        <step r="0" x="0" g="0" b="0" rho="0.92592591047286987"/>
        <step r="0" x="0" g="0" b="0" rho="0.91743117570877075"/>
        <step r="0" x="0" g="0" b="0" rho="0.90909087657928467"/>
        <step r="0" x="0" g="0" b="0" rho="0.90090090036392212"/>
        <step r="0" x="0" g="0" b="0" rho="0.8928571343421936"/>
      </ratioTapChanger>
      <currentLimits1 permanentLimit="34641"/>
      <currentLimits2 permanentLimit="34641"/>
    </twoWindingsTransformer>
  </substation>
  <substation id="_1a6fe4b6-a0fc-47fa-8946-62398ab9ae75" country="FR" tso="RTE">
    <property name="paysCvg" value="AUTRE PAYS"/>
    <property name="regionCvg" value="AUTRE PAYS"/>
    <voltageLevel id="1042_130" nominalV="130" highVoltageLimit="136.5" topologyKind="BUS_BREAKER">
      <busBreakerTopology>
        <bus id="1042_131" v="131.89347839355469" angle="-3.1568910228216795"/>
      </busBreakerTopology>
    </voltageLevel>
    <voltageLevel id="B02___20" nominalV="20" highVoltageLimit="21" topologyKind="BUS_BREAKER">
      <busBreakerTopology>
        <bus id="B02___21" v="20.025129318237305" angle="-6.2607874616468759"/>
      </busBreakerTopology>
      <load id="02_1" loadType="UNDEFINED" p0="330.0260009765625" q0="71.011299133300781" bus="B02___21" connectableBus="B02___21" p="330.0260009765625" q="71.011299133300781"/>
    </voltageLevel>
    <voltageLevel id="BG06__15" nominalV="15" highVoltageLimit="15.750001907348633" topologyKind="BUS_BREAKER">
      <busBreakerTopology>
        <bus id="BG06__11" v="15.127096176147461" angle="4.8065466991368968"/>
      </busBreakerTopology>
      <generator id="g06" energySource="OTHER" minP="0" maxP="9999" voltageRegulatorOn="false" targetP="360" targetQ="138.60000610351562" targetV="15.126001358032227" bus="BG06__11" connectableBus="BG06__11" p="-360" q="-138.60000610351562">
        <property name="genreCvg" value="AUTRE"/>
        <reactiveCapabilityCurve>
          <point p="0" minQ="-400" maxQ="400"/>
          <point p="9999" minQ="-400" maxQ="400"/>
        </reactiveCapabilityCurve>
      </generator>
    </voltageLevel>
    <twoWindingsTransformer id="Tr1042-g6" r="0" x="0.084375016391277313" g="0" b="0" ratedU1="130" ratedU2="15" voltageLevelId1="1042_130" bus1="1042_131" connectableBus1="1042_131" voltageLevelId2="BG06__15" bus2="BG06__11" connectableBus2="BG06__11" p1="-360" q1="-83.73004150390625" p2="360" q2="138.60000610351562">
      <ratioTapChanger lowTapPosition="0" tapPosition="10" loadTapChangingCapabilities="false" regulating="false">
        <step r="0" x="0" g="0" b="0" rho="1.0526316165924072"/>
        <step r="0" x="0" g="0" b="0" rho="1.0416667461395264"/>
        <step r="0" x="0" g="0" b="0" rho="1.0309277772903442"/>
        <step r="0" x="0" g="0" b="0" rho="1.0204081535339355"/>
        <step r="0" x="0" g="0" b="0" rho="1.0101009607315063"/>
        <step r="0" x="0" g="0" b="0" rho="1"/>
        <step r="0" x="0" g="0" b="0" rho="0.99009901285171509"/>
        <step r="0" x="0" g="0" b="0" rho="0.98039215803146362"/>
        <step r="0" x="0" g="0" b="0" rho="0.97087383270263672"/>
        <step r="0" x="0" g="0" b="0" rho="0.96153849363327026"/>
        <step r="0" x="0" g="0" b="0" rho="0.95238101482391357"/>
      </ratioTapChanger>
      <currentLimits1 permanentLimit="15395.9990234375"/>
      <currentLimits2 permanentLimit="15395.9990234375"/>
    </twoWindingsTransformer>
    <twoWindingsTransformer id="Tr2-1042" r="0" x="0.066666767001152039" g="0" b="0" ratedU1="130" ratedU2="20" voltageLevelId1="1042_130" bus1="1042_131" connectableBus1="1042_131" voltageLevelId2="B02___20" bus2="B02___21" connectableBus2="B02___21" p1="330.0260009765625" q1="89.956977844238281" p2="-330.0260009765625" q2="-71.011299133300781">
      <ratioTapChanger lowTapPosition="0" tapPosition="20" loadTapChangingCapabilities="true" regulating="true"  targetV="20">
        <terminalRef id="B02___21" side="TWO"/>
        <step r="0" x="0" g="0" b="0" rho="1.25"/>
        <step r="0" x="0" g="0" b="0" rho="1.2345678806304932"/>
        <step r="0" x="0" g="0" b="0" rho="1.2195122241973877"/>
        <step r="0" x="0" g="0" b="0" rho="1.2048193216323853"/>
        <step r="0" x="0" g="0" b="0" rho="1.1904761791229248"/>
        <step r="0" x="0" g="0" b="0" rho="1.1764705181121826"/>
        <step r="0" x="0" g="0" b="0" rho="1.1627906560897827"/>
        <step r="0" x="0" g="0" b="0" rho="1.1494252681732178"/>
        <step r="0" x="0" g="0" b="0" rho="1.1363636255264282"/>
        <step r="0" x="0" g="0" b="0" rho="1.1235954761505127"/>
        <step r="0" x="0" g="0" b="0" rho="1.1111111640930176"/>
        <step r="0" x="0" g="0" b="0" rho="1.0989010334014893"/>
        <step r="0" x="0" g="0" b="0" rho="1.0869565010070801"/>
        <step r="0" x="0" g="0" b="0" rho="1.0752688646316528"/>
        <step r="0" x="0" g="0" b="0" rho="1.063829779624939"/>
        <step r="0" x="0" g="0" b="0" rho="1.0526316165924072"/>
        <step r="0" x="0" g="0" b="0" rho="1.0416667461395264"/>
        <step r="0" x="0" g="0" b="0" rho="1.0309277772903442"/>
        <step r="0" x="0" g="0" b="0" rho="1.0204081535339355"/>
        <step r="0" x="0" g="0" b="0" rho="1.0101009607315063"/>
        <step r="0" x="0" g="0" b="0" rho="1"/>
        <step r="0" x="0" g="0" b="0" rho="0.99009901285171509"/>
        <step r="0" x="0" g="0" b="0" rho="0.98039215803146362"/>
        <step r="0" x="0" g="0" b="0" rho="0.97087383270263672"/>
        <step r="0" x="0" g="0" b="0" rho="0.96153849363327026"/>
        <step r="0" x="0" g="0" b="0" rho="0.95238101482391357"/>
        <step r="0" x="0" g="0" b="0" rho="0.94339627027511597"/>
        <step r="0" x="0" g="0" b="0" rho="0.93457937240600586"/>
        <step r="0" x="0" g="0" b="0" rho="0.92592591047286987"/>
        <step r="0" x="0" g="0" b="0" rho="0.91743117570877075"/>
        <step r="0" x="0" g="0" b="0" rho="0.90909087657928467"/>
        <step r="0" x="0" g="0" b="0" rho="0.90090090036392212"/>
        <step r="0" x="0" g="0" b="0" rho="0.8928571343421936"/>
      </ratioTapChanger>
      <currentLimits1 permanentLimit="17320.5"/>
      <currentLimits2 permanentLimit="17320.5"/>
    </twoWindingsTransformer>
  </substation>
  <substation id="_24b8bbc5-1f71-4d9f-a22f-2c1a9dc6b44b" country="FR" tso="RTE">
    <property name="paysCvg" value="AUTRE PAYS"/>
    <property name="regionCvg" value="AUTRE PAYS"/>
    <voltageLevel id="1043_130" nominalV="130" highVoltageLimit="136.5" topologyKind="BUS_BREAKER">
      <busBreakerTopology>
        <bus id="1043_131" v="133.57258605957031" angle="-12.542857792747512"/>
      </busBreakerTopology>
      <shunt id="1043-Cap" bPerSection="0.011834300123155117" maximumSectionCount="1" currentSectionCount="1" bus="1043_131" connectableBus="1043_131" q="-211.14329528808594">
        <property name="qMax" value="200"/>
      </shunt>
    </voltageLevel>
    <voltageLevel id="B03___20" nominalV="20" highVoltageLimit="21" topologyKind="BUS_BREAKER">
      <busBreakerTopology>
        <bus id="B03___21" v="19.949119567871094" angle="-15.735985743880459"/>
      </busBreakerTopology>
      <load id="03_1" loadType="UNDEFINED" p0="260" q0="83.842399597167969" bus="B03___21" connectableBus="B03___21" p="260" q="83.842399597167969"/>
    </voltageLevel>
    <voltageLevel id="BG07__15" nominalV="15" highVoltageLimit="15.750001907348633" topologyKind="BUS_BREAKER">
      <busBreakerTopology>
        <bus id="BG07__11" v="15.211889266967773" angle="-4.7242672521871611"/>
      </busBreakerTopology>
      <generator id="g07" energySource="OTHER" minP="0" maxP="9999" voltageRegulatorOn="false" targetP="180" targetQ="60.400001525878906" targetV="15.211499214172363" bus="BG07__11" connectableBus="BG07__11" p="-180" q="-60.400001525878906">
        <property name="genreCvg" value="AUTRE"/>
        <reactiveCapabilityCurve>
          <point p="0" minQ="-200" maxQ="200"/>
          <point p="9999" minQ="-200" maxQ="200"/>
        </reactiveCapabilityCurve>
      </generator>
    </voltageLevel>
    <twoWindingsTransformer id="Tr1043-g7" r="0" x="0.16875003278255463" g="0" b="0" ratedU1="130" ratedU2="15" voltageLevelId1="1043_130" bus1="1043_131" connectableBus1="1043_131" voltageLevelId2="BG07__15" bus2="BG07__11" connectableBus2="BG07__11" p1="-180" q1="-34.11181640625" p2="180" q2="60.400001525878906">
      <ratioTapChanger lowTapPosition="0" tapPosition="10" loadTapChangingCapabilities="false" regulating="false">
        <step r="0" x="0" g="0" b="0" rho="1.0526316165924072"/>
        <step r="0" x="0" g="0" b="0" rho="1.0416667461395264"/>
        <step r="0" x="0" g="0" b="0" rho="1.0309277772903442"/>
        <step r="0" x="0" g="0" b="0" rho="1.0204081535339355"/>
        <step r="0" x="0" g="0" b="0" rho="1.0101009607315063"/>
        <step r="0" x="0" g="0" b="0" rho="1"/>
        <step r="0" x="0" g="0" b="0" rho="0.99009901285171509"/>
        <step r="0" x="0" g="0" b="0" rho="0.98039215803146362"/>
        <step r="0" x="0" g="0" b="0" rho="0.97087383270263672"/>
        <step r="0" x="0" g="0" b="0" rho="0.96153849363327026"/>
        <step r="0" x="0" g="0" b="0" rho="0.95238101482391357"/>
      </ratioTapChanger>
      <currentLimits1 permanentLimit="7697.99951171875"/>
      <currentLimits2 permanentLimit="7697.99951171875"/>
    </twoWindingsTransformer>
    <twoWindingsTransformer id="Tr3-1043" r="0" x="0.08695647120475769" g="0" b="0" ratedU1="130" ratedU2="20" voltageLevelId1="1043_130" bus1="1043_131" connectableBus1="1043_131" voltageLevelId2="B03___20" bus2="B03___21" connectableBus2="B03___21" p1="260" q1="100.14907073974609" p2="-260" q2="-83.842399597167969">
      <ratioTapChanger lowTapPosition="0" tapPosition="21" loadTapChangingCapabilities="true" regulating="true"  targetV="20">
        <terminalRef id="B03___21" side="TWO"/>
        <step r="0" x="0" g="0" b="0" rho="1.25"/>
        <step r="0" x="0" g="0" b="0" rho="1.2345678806304932"/>
        <step r="0" x="0" g="0" b="0" rho="1.2195122241973877"/>
        <step r="0" x="0" g="0" b="0" rho="1.2048193216323853"/>
        <step r="0" x="0" g="0" b="0" rho="1.1904761791229248"/>
        <step r="0" x="0" g="0" b="0" rho="1.1764705181121826"/>
        <step r="0" x="0" g="0" b="0" rho="1.1627906560897827"/>
        <step r="0" x="0" g="0" b="0" rho="1.1494252681732178"/>
        <step r="0" x="0" g="0" b="0" rho="1.1363636255264282"/>
        <step r="0" x="0" g="0" b="0" rho="1.1235954761505127"/>
        <step r="0" x="0" g="0" b="0" rho="1.1111111640930176"/>
        <step r="0" x="0" g="0" b="0" rho="1.0989010334014893"/>
        <step r="0" x="0" g="0" b="0" rho="1.0869565010070801"/>
        <step r="0" x="0" g="0" b="0" rho="1.0752688646316528"/>
        <step r="0" x="0" g="0" b="0" rho="1.063829779624939"/>
        <step r="0" x="0" g="0" b="0" rho="1.0526316165924072"/>
        <step r="0" x="0" g="0" b="0" rho="1.0416667461395264"/>
        <step r="0" x="0" g="0" b="0" rho="1.0309277772903442"/>
        <step r="0" x="0" g="0" b="0" rho="1.0204081535339355"/>
        <step r="0" x="0" g="0" b="0" rho="1.0101009607315063"/>
        <step r="0" x="0" g="0" b="0" rho="1"/>
        <step r="0" x="0" g="0" b="0" rho="0.99009901285171509"/>
        <step r="0" x="0" g="0" b="0" rho="0.98039215803146362"/>
        <step r="0" x="0" g="0" b="0" rho="0.97087383270263672"/>
        <step r="0" x="0" g="0" b="0" rho="0.96153849363327026"/>
        <step r="0" x="0" g="0" b="0" rho="0.95238101482391357"/>
        <step r="0" x="0" g="0" b="0" rho="0.94339627027511597"/>
        <step r="0" x="0" g="0" b="0" rho="0.93457937240600586"/>
        <step r="0" x="0" g="0" b="0" rho="0.92592591047286987"/>
        <step r="0" x="0" g="0" b="0" rho="0.91743117570877075"/>
        <step r="0" x="0" g="0" b="0" rho="0.90909087657928467"/>
        <step r="0" x="0" g="0" b="0" rho="0.90090090036392212"/>
        <step r="0" x="0" g="0" b="0" rho="0.8928571343421936"/>
      </ratioTapChanger>
      <currentLimits1 permanentLimit="13279.0986328125"/>
      <currentLimits2 permanentLimit="13279.0986328125"/>
    </twoWindingsTransformer>
  </substation>
  <substation id="_7340d87a-6fed-416e-9c35-eeb8aecb61e7" country="FR" tso="RTE">
    <property name="paysCvg" value="AUTRE PAYS"/>
    <property name="regionCvg" value="AUTRE PAYS"/>
    <voltageLevel id="1044_130" nominalV="130" highVoltageLimit="136.5" topologyKind="BUS_BREAKER">
      <busBreakerTopology>
        <bus id="1044_131" v="130.86238098144531" angle="-3.4810274682815665"/>
      </busBreakerTopology>
      <shunt id="1044-Cap" bPerSection="0.011834300123155117" maximumSectionCount="1" currentSectionCount="1" bus="1044_131" connectableBus="1044_131" q="-202.66194152832031">
        <property name="qMax" value="200"/>
      </shunt>
    </voltageLevel>
    <voltageLevel id="4044_400" nominalV="400" highVoltageLimit="420" topologyKind="BUS_BREAKER">
      <busBreakerTopology>
        <bus id="4044_401" v="415.801025390625" angle="0"/>
      </busBreakerTopology>
    </voltageLevel>
    <voltageLevel id="B04___20" nominalV="20" highVoltageLimit="21" topologyKind="BUS_BREAKER">
      <busBreakerTopology>
        <bus id="B04___21" v="19.993793487548828" angle="-6.4415872647321679"/>
      </busBreakerTopology>
      <load id="04_1" loadType="UNDEFINED" p0="840" q0="252" bus="B04___21" connectableBus="B04___21" p="840" q="252"/>
    </voltageLevel>
    <twoWindingsTransformer id="Tr1044-4044a" r="0" x="1.6899998188018799" g="0" b="0" ratedU1="400" ratedU2="130" voltageLevelId1="4044_400" bus1="4044_401" connectableBus1="4044_401" voltageLevelId2="1044_130" bus2="1044_131" connectableBus2="1044_131" p1="616.84698486328125" q1="44.905208587646484" p2="-616.84698486328125" q2="-7.3497018814086914">
      <ratioTapChanger lowTapPosition="0" tapPosition="8" loadTapChangingCapabilities="false" regulating="false">
        <step r="0" x="0" g="0" b="0" rho="1.0526316165924072"/>
        <step r="0" x="0" g="0" b="0" rho="1.0416667461395264"/>
        <step r="0" x="0" g="0" b="0" rho="1.0309277772903442"/>
        <step r="0" x="0" g="0" b="0" rho="1.0204081535339355"/>
        <step r="0" x="0" g="0" b="0" rho="1.0101009607315063"/>
        <step r="0" x="0" g="0" b="0" rho="1"/>
        <step r="0" x="0" g="0" b="0" rho="0.99009901285171509"/>
        <step r="0" x="0" g="0" b="0" rho="0.98039215803146362"/>
        <step r="0" x="0" g="0" b="0" rho="0.97087383270263672"/>
        <step r="0" x="0" g="0" b="0" rho="0.96153849363327026"/>
        <step r="0" x="0" g="0" b="0" rho="0.95238101482391357"/>
      </ratioTapChanger>
      <currentLimits1 permanentLimit="4441.16015625"/>
      <currentLimits2 permanentLimit="4441.16015625"/>
    </twoWindingsTransformer>
    <twoWindingsTransformer id="Tr1044-4044b" r="0" x="1.6899998188018799" g="0" b="0" ratedU1="400" ratedU2="130" voltageLevelId1="4044_400" bus1="4044_401" connectableBus1="4044_401" voltageLevelId2="1044_130" bus2="1044_131" connectableBus2="1044_131" p1="616.84698486328125" q1="44.905208587646484" p2="-616.84698486328125" q2="-7.3497018814086914">
      <ratioTapChanger lowTapPosition="0" tapPosition="8" loadTapChangingCapabilities="false" regulating="false">
        <step r="0" x="0" g="0" b="0" rho="1.0526316165924072"/>
        <step r="0" x="0" g="0" b="0" rho="1.0416667461395264"/>
        <step r="0" x="0" g="0" b="0" rho="1.0309277772903442"/>
        <step r="0" x="0" g="0" b="0" rho="1.0204081535339355"/>
        <step r="0" x="0" g="0" b="0" rho="1.0101009607315063"/>
        <step r="0" x="0" g="0" b="0" rho="1"/>
        <step r="0" x="0" g="0" b="0" rho="0.99009901285171509"/>
        <step r="0" x="0" g="0" b="0" rho="0.98039215803146362"/>
        <step r="0" x="0" g="0" b="0" rho="0.97087383270263672"/>
        <step r="0" x="0" g="0" b="0" rho="0.96153849363327026"/>
        <step r="0" x="0" g="0" b="0" rho="0.95238101482391357"/>
      </ratioTapChanger>
      <currentLimits1 permanentLimit="4441.16015625"/>
      <currentLimits2 permanentLimit="4441.16015625"/>
    </twoWindingsTransformer>
    <twoWindingsTransformer id="Tr4-1044" r="0" x="0.025000007823109627" g="0" b="0" ratedU1="130" ratedU2="20" voltageLevelId1="1044_130" bus1="1044_131" connectableBus1="1044_131" voltageLevelId2="B04___20" bus2="B04___21" connectableBus2="B04___21" p1="840" q1="300.09884643554688" p2="-840" q2="-252">
      <ratioTapChanger lowTapPosition="0" tapPosition="19" loadTapChangingCapabilities="true" regulating="true"  targetV="20">
        <terminalRef id="B04___21" side="TWO"/>
        <step r="0" x="0" g="0" b="0" rho="1.25"/>
        <step r="0" x="0" g="0" b="0" rho="1.2345678806304932"/>
        <step r="0" x="0" g="0" b="0" rho="1.2195122241973877"/>
        <step r="0" x="0" g="0" b="0" rho="1.2048193216323853"/>
        <step r="0" x="0" g="0" b="0" rho="1.1904761791229248"/>
        <step r="0" x="0" g="0" b="0" rho="1.1764705181121826"/>
        <step r="0" x="0" g="0" b="0" rho="1.1627906560897827"/>
        <step r="0" x="0" g="0" b="0" rho="1.1494252681732178"/>
        <step r="0" x="0" g="0" b="0" rho="1.1363636255264282"/>
        <step r="0" x="0" g="0" b="0" rho="1.1235954761505127"/>
        <step r="0" x="0" g="0" b="0" rho="1.1111111640930176"/>
        <step r="0" x="0" g="0" b="0" rho="1.0989010334014893"/>
        <step r="0" x="0" g="0" b="0" rho="1.0869565010070801"/>
        <step r="0" x="0" g="0" b="0" rho="1.0752688646316528"/>
        <step r="0" x="0" g="0" b="0" rho="1.063829779624939"/>
        <step r="0" x="0" g="0" b="0" rho="1.0526316165924072"/>
        <step r="0" x="0" g="0" b="0" rho="1.0416667461395264"/>
        <step r="0" x="0" g="0" b="0" rho="1.0309277772903442"/>
        <step r="0" x="0" g="0" b="0" rho="1.0204081535339355"/>
        <step r="0" x="0" g="0" b="0" rho="1.0101009607315063"/>
        <step r="0" x="0" g="0" b="0" rho="1"/>
        <step r="0" x="0" g="0" b="0" rho="0.99009901285171509"/>
        <step r="0" x="0" g="0" b="0" rho="0.98039215803146362"/>
        <step r="0" x="0" g="0" b="0" rho="0.97087383270263672"/>
        <step r="0" x="0" g="0" b="0" rho="0.96153849363327026"/>
        <step r="0" x="0" g="0" b="0" rho="0.95238101482391357"/>
        <step r="0" x="0" g="0" b="0" rho="0.94339627027511597"/>
        <step r="0" x="0" g="0" b="0" rho="0.93457937240600586"/>
        <step r="0" x="0" g="0" b="0" rho="0.92592591047286987"/>
        <step r="0" x="0" g="0" b="0" rho="0.91743117570877075"/>
        <step r="0" x="0" g="0" b="0" rho="0.90909087657928467"/>
        <step r="0" x="0" g="0" b="0" rho="0.90090090036392212"/>
        <step r="0" x="0" g="0" b="0" rho="0.8928571343421936"/>
      </ratioTapChanger>
      <currentLimits1 permanentLimit="46188"/>
      <currentLimits2 permanentLimit="46188"/>
    </twoWindingsTransformer>
  </substation>
  <substation id="_5f6d1041-5474-4195-827d-fc726fd21075" country="FR" tso="RTE">
    <property name="paysCvg" value="AUTRE PAYS"/>
    <property name="regionCvg" value="AUTRE PAYS"/>
    <voltageLevel id="1045_130" nominalV="130" highVoltageLimit="136.5" topologyKind="BUS_BREAKER">
      <busBreakerTopology>
        <bus id="1045_131" v="131.44334411621094" angle="-7.4335014869472698"/>
      </busBreakerTopology>
      <shunt id="1045-Cap" bPerSection="0.011834300123155117" maximumSectionCount="1" currentSectionCount="1" bus="1045_131" connectableBus="1045_131" q="-204.46539306640625">
        <property name="qMax" value="200"/>
      </shunt>
    </voltageLevel>
    <voltageLevel id="4045_400" nominalV="400" highVoltageLimit="420" topologyKind="BUS_BREAKER">
      <busBreakerTopology>
        <bus id="4045_401" v="421.35110473632812" angle="-4.6464201711219415"/>
      </busBreakerTopology>
    </voltageLevel>
    <voltageLevel id="B05___20" nominalV="20" highVoltageLimit="21" topologyKind="BUS_BREAKER">
      <busBreakerTopology>
        <bus id="B05___21" v="19.922618865966797" angle="-10.360370734986549"/>
      </busBreakerTopology>
...